48
# CELL(GENH):   41.27200    0.00000    0.00000    0.00000   31.11900    0.00000    0.00000    0.00000   15.00000 positions{angstrom} cell{angstrom}
O       10.16200000      21.95700000       2.50400000
H        0.56800000      22.56900000       2.33400000
H        9.34800000      22.47300000       2.57000000
O        5.00300000      24.72700000       2.49600000
H        5.72700000      24.11500000       2.66600000
H        4.18900000      24.21200000       2.43000000
O        2.44200000      23.33300000       2.52800000
H        2.31000000      23.44700000       3.47200000
H        2.82200000      22.42400000       2.44800000
O        7.60100000      23.35100000       2.47200000
H        7.46900000      23.23700000       1.52800000
H        7.98100000      24.26000000       2.55200000
O       20.48000000      21.95700000       2.50400000
H       10.88600000      22.56900000       2.33400000
H       19.66600000      22.47300000       2.57000000
O       15.32100000      24.72700000       2.49600000
H       16.04500000      24.11500000       2.66600000
H       14.50700000      24.21200000       2.43000000
O       12.76000000      23.33300000       2.52800000
H       12.62800000      23.44700000       3.47200000
H       13.14000000      22.42400000       2.44800000
O       17.91900000      23.35100000       2.47200000
H       17.78700000      23.23700000       1.52800000
H       18.29900000      24.26000000       2.55200000
O       30.79800000      21.95700000       2.50400000
H       21.20400000      22.56900000       2.33400000
H       29.98400000      22.47300000       2.57000000
O       25.63900000      24.72700000       2.49600000
H       26.36300000      24.11500000       2.66600000
H       24.82500000      24.21200000       2.43000000
O       23.07800000      23.33300000       2.52800000
H       22.94600000      23.44700000       3.47200000
H       23.45800000      22.42400000       2.44800000
O       28.23700000      23.35100000       2.47200000
H       28.10500000      23.23700000       1.52800000
H       28.61700000      24.26000000       2.55200000
O       41.11600000      21.95700000       2.50400000
H       31.52200000      22.56900000       2.33400000
H       40.30200000      22.47300000       2.57000000
O       35.95700000      24.72700000       2.49600000
H       36.68100000      24.11500000       2.66600000
H       35.14300000      24.21200000       2.43000000
O       33.39600000      23.33300000       2.52800000
H       33.26400000      23.44700000       3.47200000
H       33.77600000      22.42400000       2.44800000
O       38.55500000      23.35100000       2.47200000
H       38.42300000      23.23700000       1.52800000
H       38.93500000      24.26000000       2.55200000
