432
# CELL(abcABC):   37.42600    25.64600    14.99400    90.01000    90.02000    90.02000  positions{angstrom}  cell{angstrom}
       O  7.01000e-01  6.25000e-01  2.54400e+00
       H  1.60000e-02 -4.80000e-02  2.73500e+00
       H  1.42900e+00  1.28170e+01  2.05900e+00
       O  2.39800e+00  2.68400e+00  2.47200e+00
       H  2.92400e+00  1.97500e+00  2.11700e+00
       H  1.72400e+00  2.21400e+00  2.97700e+00
       O  8.21000e-01  4.79300e+00  2.50600e+00
       H  2.72000e-01  4.07700e+00  2.84800e+00
       H  1.29600e+00  4.40700e+00  1.73400e+00
       O  2.46700e+00  6.83600e+00  2.51300e+00
       H  3.00700e+00  6.10700e+00  2.11400e+00
       H  1.81500e+00  6.39300e+00  3.05500e+00
       O  8.57000e-01  9.06200e+00  2.49200e+00
       H  3.26000e-01  8.23800e+00  2.42800e+00
       H  1.48900e+00  8.89100e+00  1.76400e+00
       O  2.41700e+00  1.11610e+01  2.51900e+00
       H  3.03100e+00  1.04260e+01  2.48500e+00
       H  1.67100e+00  1.07210e+01  2.95800e+00
       O  3.79700e+00  4.66000e-01  2.52200e+00
       H  3.25800e+00 -1.90000e-01  2.94400e+00
       H  4.49900e+00  1.29130e+01  1.91200e+00
       O  5.47300e+00  2.74400e+00  2.50200e+00
       H  5.86100e+00  1.83900e+00  2.37700e+00
       H  4.88700e+00  2.60700e+00  3.26600e+00
       O  3.98500e+00  4.77400e+00  2.47600e+00
       H  3.42600e+00  3.99700e+00  2.68400e+00
       H  4.63000e+00  4.36300e+00  1.89200e+00
       O  5.64800e+00  6.84100e+00  2.46500e+00
       H  6.35100e+00  6.21300e+00  2.28500e+00
       H  4.91400e+00  6.27900e+00  2.75300e+00
       O  3.95800e+00  9.07900e+00  2.48700e+00
       H  3.57100e+00  8.26200e+00  2.78800e+00
       H  4.56000e+00  8.89000e+00  1.75900e+00
       O  5.47200e+00  1.11600e+01  2.52800e+00
       H  6.15900e+00  1.05630e+01  2.19900e+00
       H  5.10700e+00  1.06810e+01  3.28000e+00
       O  6.95800e+00  6.01000e-01  2.50500e+00
       H  6.41600e+00 -1.42000e-01  2.76600e+00
       H  7.71300e+00  1.30940e+01  1.90200e+00
       O  8.69800e+00  2.58900e+00  2.55900e+00
       H  9.30600e+00  1.93700e+00  2.22100e+00
       H  8.08000e+00  2.05600e+00  3.06200e+00
       O  7.27000e+00  4.68200e+00  2.59700e+00
       H  6.55400e+00  4.03100e+00  2.70400e+00
       H  8.03600e+00  4.21300e+00  2.35100e+00
       O  8.78100e+00  6.94200e+00  2.50800e+00
       H  9.30900e+00  6.30300e+00  2.00000e+00
       H  8.13700e+00  6.46900e+00  3.03100e+00
       O  7.01000e+00  9.08400e+00  2.44800e+00
       H  6.42200e+00  8.34400e+00  2.52500e+00
       H  7.65700e+00  8.70500e+00  1.86100e+00
       O  8.70500e+00  1.13170e+01  2.53700e+00
       H  9.31000e+00  1.06010e+01  2.24700e+00
       H  8.12400e+00  1.08810e+01  3.13300e+00
       O  1.02850e+01  5.54000e-01  2.45800e+00
       H  9.54300e+00 -7.70000e-02  2.64500e+00
       H  1.06090e+01  1.32630e+01  1.82300e+00
       O  1.20230e+01  2.67900e+00  2.49000e+00
       H  1.27470e+01  2.14400e+00  2.14100e+00
       H  1.14780e+01  1.98700e+00  2.94400e+00
       O  1.02750e+01  4.65100e+00  2.45700e+00
       H  9.72600e+00  3.95600e+00  2.92800e+00
       H  1.09570e+01  4.21700e+00  1.99600e+00
       O  1.16920e+01  6.91200e+00  2.44500e+00
       H  1.23570e+01  6.23400e+00  2.30900e+00
       H  1.10040e+01  6.45300e+00  2.93100e+00
       O  9.96300e+00  9.16400e+00  2.51000e+00
       H  9.40700e+00  8.37400e+00  2.61900e+00
       H  1.06950e+01  8.72400e+00  2.07500e+00
       O  1.15920e+01  1.14300e+01  2.52100e+00
       H  1.20080e+01  1.05230e+01  2.29700e+00
       H  1.08920e+01  1.11980e+01  3.13500e+00
       O  7.29000e-01  1.32940e+01  2.52000e+00
       H  1.82000e-01  1.25400e+01  2.79300e+00
       H  1.38700e+00  2.56720e+01  2.23400e+00
       O  2.46500e+00  1.54830e+01  2.50600e+00
       H  2.91600e+00  1.46710e+01  2.24700e+00
       H  1.68900e+00  1.52550e+01  2.99200e+00
       O  6.78000e-01  1.76250e+01  2.51100e+00
       H  8.70000e-02  1.68730e+01  2.74700e+00
       H  1.16600e+00  1.73620e+01  1.71300e+00
       O  2.32400e+00  1.97480e+01  2.47500e+00
       H  3.10800e+00  1.91510e+01  2.25800e+00
       H  1.78000e+00  1.92710e+01  3.15400e+00
       O  6.37000e-01  2.19020e+01  2.52500e+00
       H  1.25000e-01  2.11060e+01  2.78100e+00
       H  1.22400e+00  2.14420e+01  1.91300e+00
       O  2.18700e+00  2.40160e+01  2.49600e+00
       H  2.67100e+00  2.32880e+01  2.04600e+00
       H  1.60300e+00  2.34260e+01  3.00400e+00
       O  3.82900e+00  1.32380e+01  2.50600e+00
       H  3.18200e+00  1.25270e+01  2.67700e+00
       H  4.44500e+00  2.55440e+01  2.09700e+00
       O  5.40600e+00  1.53410e+01  2.51300e+00
       H  6.15200e+00  1.47520e+01  2.45400e+00
       H  4.92900e+00  1.49470e+01  3.25900e+00
       O  3.98200e+00  1.76050e+01  2.49500e+00
       H  3.29300e+00  1.69500e+01  2.71900e+00
       H  4.52500e+00  1.70870e+01  1.93900e+00
       O  5.38000e+00  1.99320e+01  2.45500e+00
       H  5.93300e+00  1.92210e+01  2.16500e+00
       H  5.00300e+00  1.95600e+01  3.27600e+00
       O  3.65700e+00  2.19740e+01  2.53200e+00
       H  3.11600e+00  2.12620e+01  2.88600e+00
       H  4.36700e+00  2.14740e+01  2.15100e+00
       O  5.41800e+00  2.40770e+01  2.51600e+00
       H  5.88700e+00  2.32850e+01  2.15700e+00
       H  4.73000e+00  2.37310e+01  3.09500e+00
       O  7.05300e+00  1.33580e+01  2.55600e+00
       H  6.52300e+00  1.25730e+01  2.77600e+00
       H  7.57100e+00  2.58330e+01  1.92500e+00
       O  8.80200e+00  1.56860e+01  2.46800e+00
       H  9.40900e+00  1.48290e+01  2.46400e+00
       H  8.28900e+00  1.54950e+01  3.26800e+00
       O  6.85700e+00  1.75960e+01  2.51900e+00
       H  6.24300e+00  1.69850e+01  2.96700e+00
       H  7.18500e+00  1.71750e+01  1.71600e+00
       O  8.36300e+00  1.98550e+01  2.54800e+00
       H  9.04100e+00  1.91400e+01  2.35700e+00
       H  7.83900e+00  1.93520e+01  3.17800e+00
       O  6.81300e+00  2.20870e+01  2.45400e+00
       H  6.34100e+00  2.12840e+01  2.73100e+00
       H  7.35900e+00  2.17430e+01  1.76400e+00
       O  8.55600e+00  2.41580e+01  2.52500e+00
       H  8.80800e+00  2.32040e+01  2.41400e+00
       H  7.97700e+00  2.41870e+01  3.26700e+00
       O  1.00390e+01  1.35650e+01  2.52300e+00
       H  9.52800e+00  1.27390e+01  2.75000e+00
       H  1.09010e+01  2.56770e+01  1.98600e+00
       O  1.18900e+01  1.57780e+01  2.49100e+00
       H  1.23590e+01  1.49130e+01  2.42300e+00
       H  1.13070e+01  1.56870e+01  3.24800e+00
       O  1.00380e+01  1.78940e+01  2.53200e+00
       H  9.55900e+00  1.70050e+01  2.66000e+00
       H  1.06960e+01  1.77740e+01  1.81700e+00
       O  1.17660e+01  1.98430e+01  2.49200e+00
       H  1.23760e+01  1.91480e+01  2.25900e+00
       H  1.11700e+01  1.93480e+01  3.09200e+00
       O  9.86300e+00  2.20290e+01  2.50500e+00
       H  9.46300e+00  2.12200e+01  2.90000e+00
       H  1.04770e+01  2.15340e+01  1.94400e+00
       O  1.15840e+01  2.40990e+01  2.48300e+00
       H  1.22530e+01  2.33390e+01  2.35300e+00
       H  1.08970e+01  2.35270e+01  2.80600e+00
       O  1.33180e+01  4.14000e-01  2.49500e+00
       H  1.26110e+01 -2.60000e-01  2.71100e+00
       H  1.37490e+01  1.30440e+01  1.98500e+00
       O  1.49950e+01  2.65400e+00  2.47100e+00
       H  1.53600e+01  1.78000e+00  2.26100e+00
       H  1.46490e+01  2.52600e+00  3.36800e+00
       O  1.34020e+01  4.89900e+00  2.57100e+00
       H  1.29640e+01  4.10700e+00  2.90600e+00
       H  1.35090e+01  4.57600e+00  1.65600e+00
       O  1.49340e+01  7.11300e+00  2.47200e+00
       H  1.53640e+01  6.22800e+00  2.53100e+00
       H  1.42590e+01  6.98300e+00  3.10000e+00
       O  1.30660e+01  9.13600e+00  2.45400e+00
       H  1.25630e+01  8.30900e+00  2.59700e+00
       H  1.36540e+01  9.04300e+00  1.71600e+00
       O  1.45450e+01  1.12850e+01  2.49300e+00
       H  1.50280e+01  1.04750e+01  2.57600e+00
       H  1.37870e+01  1.12120e+01  3.04900e+00
       O  1.63800e+01  4.55000e-01  2.52600e+00
       H  1.57480e+01 -2.45000e-01  2.77100e+00
       H  1.70590e+01  1.29530e+01  2.12100e+00
       O  1.78590e+01  2.69500e+00  2.50100e+00
       H  1.84000e+01  1.83200e+00  2.37700e+00
       H  1.70960e+01  2.39700e+00  2.97000e+00
       O  1.63770e+01  4.91200e+00  2.49100e+00
       H  1.57190e+01  4.17700e+00  2.44500e+00
       H  1.70090e+01  4.72900e+00  1.83900e+00
       O  1.81260e+01  7.06400e+00  2.49100e+00
       H  1.87930e+01  6.30600e+00  2.35900e+00
       H  1.73520e+01  6.57700e+00  2.84200e+00
       O  1.63060e+01  9.27000e+00  2.57100e+00
       H  1.58580e+01  8.39900e+00  2.66100e+00
       H  1.67550e+01  9.15700e+00  1.71200e+00
       O  1.80530e+01  1.13860e+01  2.54200e+00
       H  1.85810e+01  1.06080e+01  2.27000e+00
       H  1.73980e+01  1.10000e+01  3.12000e+00
       O  1.93760e+01  4.99000e-01  2.42400e+00
       H  1.90320e+01 -4.48000e-01  2.46000e+00
       H  2.00080e+01  1.29900e+01  1.79300e+00
       O  2.10050e+01  2.60600e+00  2.54100e+00
       H  2.14770e+01  1.72200e+00  2.52500e+00
       H  2.02200e+01  2.54700e+00  3.05700e+00
       O  1.94350e+01  4.81300e+00  2.49600e+00
       H  1.87630e+01  4.09700e+00  2.65500e+00
       H  2.00400e+01  4.50400e+00  1.78900e+00
       O  2.11410e+01  6.93100e+00  2.44500e+00
       H  2.15630e+01  6.13400e+00  2.17900e+00
       H  2.06590e+01  6.70400e+00  3.24200e+00
       O  1.94370e+01  9.23600e+00  2.55900e+00
       H  1.88470e+01  8.48000e+00  2.66400e+00
       H  2.00870e+01  8.91100e+00  1.91300e+00
       O  2.11200e+01  1.12950e+01  2.47200e+00
       H  2.17290e+01  1.05220e+01  2.36900e+00
       H  2.04260e+01  1.09000e+01  2.96900e+00
       O  2.25820e+01  5.56000e-01  2.47200e+00
       H  2.21980e+01 -3.70000e-01  2.54000e+00
       H  2.33420e+01  1.29390e+01  2.37500e+00
       O  2.43470e+01  2.66400e+00  2.45000e+00
       H  2.48250e+01  1.86100e+00  2.30500e+00
       H  2.35270e+01  2.26800e+00  2.82300e+00
       O  2.25160e+01  4.65900e+00  2.49800e+00
       H  2.18100e+01  3.92400e+00  2.43100e+00
       H  2.32250e+01  4.19800e+00  1.98900e+00
       O  2.41750e+01  6.92100e+00  2.56900e+00
       H  2.48320e+01  6.15400e+00  2.42700e+00
       H  2.33900e+01  6.48300e+00  2.90000e+00
       O  2.25910e+01  9.00500e+00  2.47900e+00
       H  2.20060e+01  8.25100e+00  2.60800e+00
       H  2.32590e+01  8.63800e+00  1.92300e+00
       O  2.40330e+01  1.12660e+01  2.50000e+00
       H  2.46490e+01  1.05460e+01  2.22200e+00
       H  2.35750e+01  1.08380e+01  3.23400e+00
       O  1.31010e+01  1.35560e+01  2.51300e+00
       H  1.24300e+01  1.29370e+01  2.76800e+00
       H  1.38550e+01  2.56580e+01  1.84800e+00
       O  1.50230e+01  1.55980e+01  2.55600e+00
       H  1.55490e+01  1.47860e+01  2.39800e+00
       H  1.41970e+01  1.52380e+01  2.85600e+00
       O  1.33870e+01  1.78460e+01  2.49800e+00
       H  1.27680e+01  1.71170e+01  2.65000e+00
       H  1.39790e+01  1.75580e+01  1.81600e+00
       O  1.48700e+01  1.99430e+01  2.54400e+00
       H  1.53690e+01  1.91910e+01  2.25100e+00
       H  1.43820e+01  1.95020e+01  3.23400e+00
       O  1.30940e+01  2.20020e+01  2.56300e+00
       H  1.27510e+01  2.11280e+01  2.74600e+00
       H  1.36820e+01  2.18710e+01  1.81900e+00
       O  1.49350e+01  2.39000e+01  2.46700e+00
       H  1.56830e+01  2.33240e+01  2.25600e+00
       H  1.43000e+01  2.34500e+01  3.05100e+00
       O  1.62790e+01  1.33380e+01  2.52300e+00
       H  1.56340e+01  1.25640e+01  2.62400e+00
       H  1.71040e+01  2.56620e+01  2.04100e+00
       O  1.80290e+01  1.56290e+01  2.43900e+00
       H  1.85450e+01  1.48050e+01  2.24800e+00
       H  1.74650e+01  1.53690e+01  3.15800e+00
       O  1.62500e+01  1.77970e+01  2.51000e+00
       H  1.57790e+01  1.69010e+01  2.46300e+00
       H  1.70270e+01  1.75970e+01  2.01100e+00
       O  1.81560e+01  1.99470e+01  2.53600e+00
       H  1.86480e+01  1.90780e+01  2.40800e+00
       H  1.73860e+01  1.98770e+01  3.12900e+00
       O  1.64920e+01  2.19280e+01  2.57300e+00
       H  1.58480e+01  2.11590e+01  2.60000e+00
       H  1.72000e+01  2.16510e+01  1.99300e+00
       O  1.81810e+01  2.40440e+01  2.43700e+00
       H  1.88650e+01  2.32920e+01  2.34400e+00
       H  1.77160e+01  2.37080e+01  3.20100e+00
       O  1.94610e+01  1.35490e+01  2.42600e+00
       H  1.90060e+01  1.28480e+01  2.89200e+00
       H  2.00560e+01  2.60740e+01  1.73800e+00
       O  2.11870e+01  1.55350e+01  2.42900e+00
       H  2.17020e+01  1.47180e+01  2.21600e+00
       H  2.04180e+01  1.52370e+01  2.93800e+00
       O  1.94310e+01  1.77190e+01  2.45200e+00
       H  1.88950e+01  1.69410e+01  2.60000e+00
       H  2.02330e+01  1.73590e+01  2.07500e+00
       O  2.11780e+01  1.98780e+01  2.48500e+00
       H  2.17380e+01  1.90990e+01  2.40200e+00
       H  2.05920e+01  1.96610e+01  3.22900e+00
       O  1.96040e+01  2.20180e+01  2.53600e+00
       H  1.90930e+01  2.12100e+01  2.42000e+00
       H  2.03160e+01  2.20010e+01  1.90300e+00
       O  2.13370e+01  2.40450e+01  2.45400e+00
       H  2.18490e+01  2.31970e+01  2.50800e+00
       H  2.06350e+01  2.39890e+01  3.06200e+00
       O  2.25430e+01  1.34480e+01  2.52300e+00
       H  2.20190e+01  1.27190e+01  2.83300e+00
       H  2.31820e+01  2.61710e+01  1.72400e+00
       O  2.42050e+01  1.56650e+01  2.43700e+00
       H  2.47620e+01  1.49240e+01  2.10700e+00
       H  2.36440e+01  1.52900e+01  3.14400e+00
       O  2.25970e+01  1.77330e+01  2.55200e+00
       H  2.21290e+01  1.68760e+01  2.50300e+00
       H  2.32960e+01  1.76410e+01  1.89500e+00
       O  2.43680e+01  1.98870e+01  2.47800e+00
       H  2.47920e+01  1.90540e+01  2.50100e+00
       H  2.35290e+01  1.97220e+01  2.92100e+00
       O  2.25840e+01  2.19160e+01  2.50800e+00
       H  2.20030e+01  2.11110e+01  2.48600e+00
       H  2.32690e+01  2.16850e+01  1.90300e+00
       O  2.42110e+01  2.39440e+01  2.48000e+00
       H  2.48590e+01  2.31570e+01  2.55700e+00
       H  2.35740e+01  2.36970e+01  3.15800e+00
       O  2.56350e+01  4.10000e-01  2.49300e+00
       H  2.50230e+01 -3.65000e-01  2.56500e+00
       H  2.63550e+01  1.30240e+01  2.16500e+00
       O  2.73850e+01  2.67600e+00  2.39700e+00
       H  2.77910e+01  1.75600e+00  2.31500e+00
       H  2.66490e+01  2.39500e+00  2.92900e+00
       O  2.57890e+01  4.91000e+00  2.42500e+00
       H  2.53680e+01  4.02400e+00  2.51600e+00
       H  2.63020e+01  4.88600e+00  1.64500e+00
       O  2.72440e+01  7.24000e+00  2.50200e+00
       H  2.78240e+01  6.51800e+00  2.23700e+00
       H  2.68190e+01  6.88800e+00  3.29300e+00
       O  2.55120e+01  9.13500e+00  2.48400e+00
       H  2.49480e+01  8.35700e+00  2.73900e+00
       H  2.61500e+01  8.70200e+00  1.92700e+00
       O  2.71200e+01  1.12790e+01  2.55000e+00
       H  2.77020e+01  1.05300e+01  2.32100e+00
       H  2.64410e+01  1.08490e+01  3.08400e+00
       O  2.86860e+01  4.61000e-01  2.42900e+00
       H  2.81880e+01 -3.87000e-01  2.65500e+00
       H  2.92010e+01  1.30150e+01  1.80600e+00
       O  3.02970e+01  2.75800e+00  2.49100e+00
       H  3.10110e+01  2.09400e+00  2.31700e+00
       H  2.96060e+01  2.20100e+00  2.83900e+00
       O  2.86120e+01  4.99300e+00  2.47500e+00
       H  2.80770e+01  4.18600e+00  2.71900e+00
       H  2.94160e+01  4.66600e+00  2.05900e+00
       O  3.02740e+01  7.14100e+00  2.44600e+00
       H  3.07740e+01  6.37400e+00  2.34700e+00
       H  2.96600e+01  6.90800e+00  3.16400e+00
       O  2.86380e+01  9.22600e+00  2.47100e+00
       H  2.81030e+01  8.43500e+00  2.36700e+00
       H  2.93760e+01  8.97900e+00  1.92700e+00
       O  3.04230e+01  1.12330e+01  2.46100e+00
       H  3.10520e+01  1.04340e+01  2.32600e+00
       H  2.97860e+01  1.09690e+01  3.12600e+00
       O  3.18150e+01  5.51000e-01  2.49900e+00
       H  3.11450e+01 -1.17000e-01  2.86900e+00
       H  3.23900e+01  1.27850e+01  2.00800e+00
       O  3.35260e+01  2.56500e+00  2.50000e+00
       H  3.39650e+01  1.71100e+00  2.35100e+00
       H  3.28780e+01  2.39700e+00  3.13500e+00
       O  3.17340e+01  4.83400e+00  2.52700e+00
       H  3.10870e+01  4.20600e+00  2.79800e+00
       H  3.23340e+01  4.34900e+00  1.95700e+00
       O  3.35630e+01  6.94400e+00  2.49700e+00
       H  3.42090e+01  6.31200e+00  2.26500e+00
       H  3.28570e+01  6.40300e+00  2.91200e+00
       O  3.18850e+01  9.23300e+00  2.46200e+00
       H  3.14230e+01  8.41700e+00  2.71200e+00
       H  3.25750e+01  9.01500e+00  1.84400e+00
       O  3.36470e+01  1.11190e+01  2.50900e+00
       H  3.42950e+01  1.03650e+01  2.43300e+00
       H  3.29920e+01  1.08370e+01  3.16200e+00
       O  3.50540e+01  5.06000e-01  2.53200e+00
       H  3.42910e+01  1.30000e-02  2.86200e+00
       H  3.57460e+01  1.26470e+01  1.90900e+00
       O  3.65750e+01  2.72500e+00  2.49600e+00
       H  3.72850e+01  2.02300e+00  2.36800e+00
       H  3.58630e+01  2.13000e+00  2.71400e+00
       O  3.49530e+01  4.75100e+00  2.53100e+00
       H  3.42260e+01  4.11400e+00  2.72500e+00
       H  3.57130e+01  4.18700e+00  2.20400e+00
       O  3.67190e+01  6.97200e+00  2.49000e+00
       H  3.72680e+01  6.16600e+00  2.39400e+00
       H  3.59790e+01  6.73400e+00  3.07500e+00
       O  3.50950e+01  9.03600e+00  2.55800e+00
       H  3.44450e+01  8.27700e+00  2.65600e+00
       H  3.57430e+01  8.67100e+00  1.98400e+00
       O  3.66840e+01  1.10920e+01  2.51600e+00
       H  3.72570e+01  1.02980e+01  2.43500e+00
       H  3.60520e+01  1.08150e+01  3.15900e+00
       O  2.55720e+01  1.34670e+01  2.50000e+00
       H  2.49350e+01  1.27620e+01  2.64700e+00
       H  2.62920e+01  2.57480e+01  1.86300e+00
       O  2.74310e+01  1.56090e+01  2.50500e+00
       H  2.79130e+01  1.47330e+01  2.54000e+00
       H  2.65390e+01  1.54180e+01  2.81400e+00
       O  2.55680e+01  1.76660e+01  2.52800e+00
       H  2.50470e+01  1.68290e+01  2.62000e+00
       H  2.61610e+01  1.74720e+01  1.80600e+00
       O  2.73570e+01  1.98390e+01  2.40800e+00
       H  2.79080e+01  1.90080e+01  2.41400e+00
       H  2.69010e+01  1.97890e+01  3.27400e+00
       O  2.58050e+01  2.19430e+01  2.59000e+00
       H  2.52790e+01  2.10800e+01  2.48000e+00
       H  2.62920e+01  2.19970e+01  1.78500e+00
       O  2.73820e+01  2.39280e+01  2.52900e+00
       H  2.78920e+01  2.31230e+01  2.29600e+00
       H  2.69380e+01  2.36860e+01  3.32800e+00
       O  2.86550e+01  1.32960e+01  2.53300e+00
       H  2.82400e+01  1.25180e+01  2.91600e+00
       H  2.94080e+01  2.57160e+01  1.89700e+00
       O  3.02820e+01  1.54880e+01  2.42800e+00
       H  3.08630e+01  1.46410e+01  2.36900e+00
       H  2.96360e+01  1.52100e+01  3.07900e+00
       O  2.86810e+01  1.76960e+01  2.52000e+00
       H  2.81760e+01  1.68780e+01  2.59700e+00
       H  2.92810e+01  1.73370e+01  1.83200e+00
       O  3.05640e+01  1.97730e+01  2.50300e+00
       H  3.11660e+01  1.90270e+01  2.24400e+00
       H  2.99430e+01  1.93770e+01  3.16200e+00
       O  2.88620e+01  2.17760e+01  2.47900e+00
       H  2.82790e+01  2.09320e+01  2.54000e+00
       H  2.96330e+01  2.15120e+01  2.01200e+00
       O  3.04090e+01  2.40030e+01  2.46500e+00
       H  3.11000e+01  2.33280e+01  2.29500e+00
       H  2.97610e+01  2.34750e+01  2.94600e+00
       O  3.18100e+01  1.33790e+01  2.51700e+00
       H  3.10730e+01  1.27160e+01  2.73500e+00
       H  3.23210e+01  2.56830e+01  1.84100e+00
       O  3.37140e+01  1.53020e+01  2.42400e+00
       H  3.43470e+01  1.45730e+01  2.24200e+00
       H  3.29360e+01  1.48160e+01  2.73600e+00
       O  3.18020e+01  1.75140e+01  2.51200e+00
       H  3.11220e+01  1.67480e+01  2.60300e+00
       H  3.25940e+01  1.71320e+01  2.08400e+00
       O  3.36910e+01  1.97480e+01  2.49300e+00
       H  3.40210e+01  1.88420e+01  2.45800e+00
       H  3.29160e+01  1.96480e+01  3.10800e+00
       O  3.18860e+01  2.19030e+01  2.46500e+00
       H  3.13360e+01  2.10670e+01  2.58500e+00
       H  3.25880e+01  2.16230e+01  1.88900e+00
       O  3.34190e+01  2.40790e+01  2.58200e+00
       H  3.39490e+01  2.34000e+01  2.20800e+00
       H  3.29270e+01  2.35250e+01  3.20700e+00
       O  3.51630e+01  1.31660e+01  2.49600e+00
       H  3.44480e+01  1.25430e+01  2.70900e+00
       H  3.56480e+01  2.54470e+01  2.18600e+00
       O  3.67130e+01  1.54120e+01  2.49200e+00
       H  3.73920e+01  1.47350e+01  2.41800e+00
       H  3.60180e+01  1.48890e+01  2.94800e+00
       O  3.49170e+01  1.75310e+01  2.54000e+00
       H  3.44620e+01  1.67110e+01  2.65700e+00
       H  3.56350e+01  1.73490e+01  1.92800e+00
       O  3.67050e+01  1.97130e+01  2.53200e+00
       H  3.72030e+01  1.89270e+01  2.28600e+00
       H  3.61120e+01  1.95200e+01  3.25900e+00
       O  3.50340e+01  2.19280e+01  2.46500e+00
       H  3.46070e+01  2.10480e+01  2.39200e+00
       H  3.57540e+01  2.16190e+01  1.89700e+00
       O  3.65860e+01  2.40090e+01  2.50700e+00
       H  3.72590e+01  2.33470e+01  2.27600e+00
       H  3.60270e+01  2.35000e+01  3.07900e+00
