42
Properties=species:S:1:pos:R:3 #=T CELL(GENH):=T 41.27200=T 0.00000=T 31.11900=T 15.00000=T positionsangstrom=T cellangstrom=T pbc="F F F"
H        3.15000000      20.05900000       2.67300000
H        6.81400000      19.89100000       2.43800000
O        8.69500000      15.38700000       2.50100000
H        8.30900000      16.25200000       2.32700000
H        9.66300000      15.50000000       2.48800000
O        7.77300000      18.18400000       2.53100000
H        7.64500000      18.05700000       3.47500000
H        8.69500000      18.53300000       2.45800000
H        0.56800000      22.56900000       2.33400000
O        3.53600000      20.92500000       2.49900000
H        4.50400000      20.81100000       2.51200000
O        6.28400000      20.69700000       2.49500000
H        6.85800000      21.40400000       2.80200000
O        2.44200000      23.33300000       2.52800000
H        2.31000000      23.44700000       3.47200000
H        2.82200000      22.42400000       2.44800000
H       13.46800000       9.68600000       2.67300000
H       17.13100000       9.51800000       2.43800000
O       19.01300000       5.01300000       2.50100000
H       18.62700000       5.87900000       2.32700000
H       19.98000000       5.12700000       2.48800000
O       18.09000000       7.81100000       2.53100000
H       17.96200000       7.68400000       3.47500000
H       19.01200000       8.16000000       2.45800000
O       11.44300000      15.61400000       2.50500000
H       12.01700000      14.90700000       2.19800000
H       11.97300000      16.42000000       2.56200000
O       13.85400000      10.55100000       2.49900000
H       14.82200000      10.43800000       2.51200000
O       16.60200000      10.32400000       2.49500000
H       17.17600000      11.03100000       2.80200000
O       12.76000000      12.96000000       2.52800000
H       12.62700000      13.07400000       3.47200000
H       13.14000000      12.05100000       2.44800000
O       21.76100000       5.24100000       2.50500000
H       22.33400000       4.53400000       2.19800000
H       22.29000000       6.04700000       2.56200000
O       24.17200000       0.17800000       2.49900000
H       25.13900000       0.06500000       2.51200000
O       23.07700000       2.58700000       2.52800000
H       22.94500000       2.70100000       3.47200000
H       23.45700000       1.67800000       2.44800000
