3
# CELL(GENH):   41.27200    0.00000    0.00000    0.00000   31.11900    0.00000    0.00000    0.00000   15.00000 positions{angstrom} cell{angstrom}
O       15.32000000      14.35400000       2.49600000
H       16.04500000      13.74200000       2.66600000
H       14.50600000      13.83800000       2.43000000
