36
# CELL(GENH):   43.00700    0.00000    0.00000    0.00000   28.22900    0.00000    0.00000    0.00000   15.00000 positions{angstrom} cell{angstrom}
O        4.66300000       0.60600000       2.49700000
H        3.95900000       0.42200000       3.12000000
H        5.17200000      13.89000000       2.43400000
O        6.08800000       2.95900000       2.50200000
H        6.79300000       2.77500000       1.88000000
H        5.58000000       2.12800000       2.56600000
O        4.66300000       5.31100000       2.49700000
H        3.95900000       5.12700000       3.12000000
H        5.17200000       4.48000000       2.43400000
O        6.08800000       7.66300000       2.50200000
H        6.79300000       7.48000000       1.88000000
H        5.58000000       6.83300000       2.56600000
O        4.66300000      10.01600000       2.49700000
H        3.95900000       9.83200000       3.12000000
H        5.17200000       9.18500000       2.43400000
O        6.08800000      12.36800000       2.50200000
H        6.79300000      12.18400000       1.88000000
H        5.58000000      11.53800000       2.56600000
O        4.66300000      14.72100000       2.49700000
H        3.95900000      14.53700000       3.12000000
H        5.17200000      28.00400000       2.43400000
O        6.08800000      17.07300000       2.50200000
H        6.79300000      16.88900000       1.88000000
H        5.58000000      16.24200000       2.56600000
O        4.66300000      19.42500000       2.49700000
H        3.95900000      19.24200000       3.12000000
H        5.17200000      18.59500000       2.43400000
O        6.08800000      21.77800000       2.50200000
H        6.79300000      21.59400000       1.88000000
H        5.58000000      20.94700000       2.56600000
O        4.66300000      24.13000000       2.49700000
H        3.95900000      23.94700000       3.12000000
H        5.17200000      23.30000000       2.43400000
O        6.08800000      26.48300000       2.50200000
H        6.79300000      26.29900000       1.88000000
H        5.58000000      25.65200000       2.56600000
